LTspice 24.0.12 for Windows
Circuit: * C:\Users\otavi\OneDrive\Desktop\Amplificadores\lab\ex1b.asc
Start Time: Mon Oct 21 19:04:27 2024
solver = Normal
Maximum thread count: 2
tnom = 27
temp = 27
method = modified trap
Direct Newton iteration for .op point succeeded.
Semiconductor Device Operating Points:
                        --- Diodes ---
Name:    d:u2:1      d:u2:2
Model:    u2:x        u2:x
Id:     -7.27e-12   -2.28e-11
Vd:     -7.26e+00   -2.27e+01
Req:     1.00e-12    1.00e-12
CAP:     0.00e+00    0.00e+00




Total elapsed time: 0.082 seconds.

