LTspice 24.0.12 for Windows
Circuit: * C:\Users\otavi\OneDrive\Desktop\Amplificadores\lab\ex1f.asc
Start Time: Mon Oct 21 19:21:37 2024
solver = Normal
Maximum thread count: 2
tnom = 27
temp = 27
method = modified trap
Direct Newton iteration for .op point succeeded.
Semiconductor Device Operating Points:
                        --- Diodes ---
Name:    d:u1:1      d:u1:2
Model:    u1:x        u1:x
Id:     -1.30e-11   -1.70e-11
Vd:     -1.30e+01   -1.70e+01
Req:     1.00e-12    1.00e-12
CAP:     0.00e+00    0.00e+00




Total elapsed time: 0.102 seconds.

