LTspice 24.0.12 for Windows
Circuit: * C:\Users\otavi\OneDrive\Desktop\Amplificadores\lab\ex3a.asc
Start Time: Mon Oct 21 20:04:58 2024
solver = Normal
Maximum thread count: 2
tnom = 27
temp = 27
method = modified trap
No AC stimulus found:
     Set the value of a current or voltage source to "AC 1."
     to make it behave as a signal generator for AC analysis.
Direct Newton iteration for .op point succeeded.
Total elapsed time: 0.056 seconds.

