LTspice 24.0.12 for Windows
Circuit: * C:\Users\otavi\OneDrive\Desktop\Amplificadores\lab\ex3c.asc
Start Time: Mon Oct 21 20:16:57 2024
solver = Normal
Maximum thread count: 2
tnom = 27
temp = 27
method = modified trap
Direct Newton iteration for .op point succeeded.
Total elapsed time: 0.300 seconds.

